         MACRO
&ADDR    INCFX &R1,&R2,&R3,&R4,&SHIFT,&BRANCH
.*       ADJUST BASE ADDRESS OF ARRAYS IF INCREMENTS ARE NEGATIVE
&ADDR    L     &R2,0(&R2)
         SLA   &R2,&SHIFT
         BP    &BRANCH
         LR    &R4,&R2
         MR    &R4-1,&R3
         SR    &R1,&R4
         MEND
./  ADD  NAME=INCBR
         MACRO
&ADDR    INCBR &R1,&R2,&R3,&R4,&R5,&LABEL
.*       STANDARD INCREMENTING AND TESTING FOR LOOP END
&ADDR    AR    &R1,&R2
         AR    &R3,&R4
         BCT   &R5,&LABEL
         MEND
./  ADD  NAME=NCHK
         MACRO
&ADDR    NCHK  &R1,&R2,&LABEL
.*       TEST FOR N .GT. 0.  QUIT WHEN N .LE. 0
&ADDR    L     &R1,0(&R2)
         LTR   &R2,&R1
         BNP   &LABEL
         BCTR  &R1,0
         MEND
./  ADD  NAME=EQUATE
         MACRO
         EQUATE
.*       DEFINE SYMBOLIC NAMES OF REGS., ETC.
R0       EQU   0
R1       EQU   1
R2       EQU   2
R3       EQU   3
R4       EQU   4
R5       EQU   5
R6       EQU   6
R7       EQU   7
R8       EQU   8
R9       EQU   9
R10      EQU   10
R11      EQU   11
R12      EQU   12
R13      EQU   13
R14      EQU   14
R15      EQU   15
F0       EQU   0
F2       EQU   2
F4       EQU   4
F6       EQU   6
RSTAR4   EQU   2
RSTAR8   EQU   3
CSTAR8   EQU   3
CSTAR16  EQU   4
         MEND
./    ADD  NAME=PROLOG
         MACRO
&NAME    PROLOG &MAXREG,&EPID=YES,&TRACE=YES
.*       VARIOUS INDIVIDUALS HAVE CONTRIBUTED TO THE 360 ASM.
.*       EFFORT.  THESE INCLUDE
.*       R.J.HANSON, TIM HARRINGTON, JOHN WISNIEWSKI, AND KAREN HASKELL
.*       SPECIAL THANKS TO PROF. DAVE BENSON FOR HELP WITH IBM/360 ASM.
.*       PROPERTIES.
         GBLB  &CALLQ
         GBLC  &REGNUM
         LCLA  &K
.*
.*       THIS NEXT CARD STOPS MACRO EXPANSION ON THE PRINT.
         PRINT NOGEN
&NAME    CSECT
         EQUATE
         AIF   ('&TRACE' NE 'YES').L1
HSA      EQU   4 .             HIGHER SAVEAREA
LSA      EQU   8 .             LOWER SAVEAREA
.L1      ANOP
&CALLQ   SETB  ('&TRACE' EQ 'YES')
&REGNUM  SETC  '&MAXREG'
         AIF   ('&EPID' NE 'YES' AND '&TRACE' NE 'YES').L30
         USING &NAME,15 .      TEMPORARY BASE REGISTER
         B     PRO&SYSNDX
         AIF   ('&EPID' NE 'YES').L10
&K       SETA  K'&NAME
         DC    AL1(&K) .       LENGTH OF EPID
         DC    CL&K'&NAME' .   ENTRY POINT INDICATOR
.L10     AIF   ('&TRACE' NE 'YES').L15
SAVE&SYSNDX DS 18F .           SAVEAREA
.L15     ANOP
PRO&SYSNDX  DS  0H
         DROP 15
.L20     AIF   ('&TRACE' NE 'YES').L30
         STM   14,&MAXREG+1,12(13)
         USING &NAME,15
         LA    14,SAVE&SYSNDX . MY SAVEAREA
         ST    14,LSA(13) .    SAVEAREA
         ST    13,HSA(14) .    POINTERS
         LR    13,14
         LR    &MAXREG+1,15
         DROP  15
         USING &NAME,&MAXREG+1 . PROGRAM BASE REGISTER
         MEXIT
.L30     STM   14,&MAXREG,12(13)
         USING &NAME,15 .      PROGRAM BASE REGISTER
         MEND
./  ADD  NAME=EPILOG
         MACRO
&LBL     EPILOG &RESULT
         GBLB  &CALLQ
         GBLC  &REGNUM
         AIF   (&CALLQ).L10
         AIF   (T'&RESULT EQ 'O').L5
&LBL     LM    14,15,12(13) .  RESULT IN R0.
         LM    1,&REGNUM,24(13)
         AGO   .L50
.L5      ANOP
&LBL     LM    14,&REGNUM,12(13) .      RESULTS IN F0.
         AGO   .L50
.L10     AIF   (T'&RESULT EQ 'O').L15
&LBL     L     13,HSA(13) .    RESTORE CALLER'S SAVEAREA.
         LM    14,15,12(13) .  RESULT IN R0.
         LM    1,&REGNUM+1,24(13)
         AGO   .L50
.L15     ANOP
&LBL     L     13,HSA(13) .    RESTORE CALLERS'S SAVEAREA.
         LM    14,&REGNUM+1,12(13) .
         AGO   .L50
.L50     BR    14 .            RETURN TO CALLING PROGRAM.
         MEND
./  ADD NAME=FIXH
         MACRO
&LABEL   FIXH
&LABEL   LE    F6,SFLAG .              GET SFLAG
         LTER  F6,F6 .                 TEST SFLAG
         BM    FXHC&SYSNDX .           IF SFLAG<0 RETURN
         BZ    FXHB&SYSNDX .           IF SFLAG=0 BRANCH TO B1
         LE    F6,=E'1.0' .            SFLAG>0 CASE; PUT 1.0 INTO F6
         STE   F6,H12 .                SET H12=1.0
         LCER  F6,F6 .                 SET F6=-1.0
         STE   F6,H21 .                SET H21=-1.0
         B     FXHA&SYSNDX
FXHB&SYSNDX LE   F6,=E'1.0' .          PUT 1.0 INTO F6(B1 BRANCH)
         STE   F6,H11 .                SET H11=1.0
         STE   F6,H22 .                SET H22=1.0
FXHA&SYSNDX  LNER  F6,F6 .             SET F6=-1.
         STE   F6,SFLAG .              SET SFLAG=-1.
FXHC&SYSNDX  DS    0H
         MEND
./  ADD NAME=DFIXH
         MACRO
&LABEL   DFIXH
&LABEL   LD    F6,DFLAG .              GET DFLAG
         LTDR  F6,F6 .                 TEST DFLAG
         BM    FXHC&SYSNDX .           IF DFLAG<0 RETURN
         BZ    FXHB&SYSNDX .           IF DFLAG=0 BRANCH TO B1
         LD    F6,=D'1.0' .            DFLAG>0 CASE; PUT 1.0 INTO F6
         STD   F6,H12 .                SET H12=1.0
         LCDR  F6,F6 .                 SET F6=-1.0
         STD   F6,H21 .
         B     FXHA&SYSNDX
FXHB&SYSNDX LD   F6,=D'1.0' .          PUT 1.0 INTO F6(B1 BRANCH)
         STD   F6,H11 .                SET H11=1.0
         STD   F6,H22 .                SET H22=1.0
FXHA&SYSNDX  LNDR  F6,F6 .             SET F6=-1.0
        STD    F6,DFLAG .              SET DFLAG=-1.
FXHC&SYSNDX  DS    0H
         MEND
//ASM.SYSIN DD *
*********SINGLE PRECISION INNER PRODUCT, SDOT, IBM/360 ASM.************
*        USAGE STATEMENT                                14 AUGUST 1975*
*             SW = SDOT (N,SX,INCX,SY,INCY)           WASH. ST. U./ANL*
*        SW,SDOT,SX( ),SY( ),REAL*4  N,INCX,INCY,INTEGER*4            *
***********************************************************************
SDOT     PROLOG R11
         LM    R2,R6,0(R1)             GET POINTERS TO ARGUMENTS
         SER   F0,F0                   SET SDOT = 0.0
         NCHK  R7,R2,DONE              GET N AND EXIT IF N .LE. 0
         L     R11,0(R4)               GET INCX
         C     R11,0(R6)               COMPARE INCY WITH INCX
         BNE   INCNE                   BRANCH TO GEN. LOOP IF NOT EQUAL
         SLA   R11,RSTAR4              MULTIPLY INCS * 4
         BM    INCNE                   BRANCH TO GEN. LOOP IF NEG.
         LR    R8,R11                  STORE INCX*4 IN UNOCCUPIED R8
         MR    R10,R7                  COMPUTE INCX * 4 * (N-1)
         SR    R6,R6                   SET R6 = 0
         LR    R10,R8                  LOAD R10 WITH LOOPEQ INCREMENT
         CNOP  0,8                     ALIGN ON DOUBLE WORD.
LOOPEQ   LE    F2,0(R6,R3)             GET SX( ) AND MULTIPLY
         ME    F2,0(R6,R5)             BY SY( ) AND ACCUMULATE
         AER   F0,F2                   INNER PRODUCT IN F0
         BXLE  R6,R10,LOOPEQ
         B     DONE
INCNE    INCFX R3,R4,R7,R9,RSTAR4,ICY    FIX SX( ) INCREMENT
ICY      INCFX R5,R6,R7,R9,RSTAR4,LOOPNE FIX SY( ) INCREMENT
         CNOP  0,8                     ALIGN ON DOUBLE WORD.
LOOPNE   LE    F2,0(R3)                GET SX( ) AND MULTIPLY
         ME    F2,0(R5)                BY SY( ) AND ACCUMULATE
         AER   F0,F2                   INNER PRODUCT IN F0
         INCBR R3,R4,R5,R6,R2,LOOPNE   ADD INCREMENTS AND CONTINUE
DONE     EPILOG
         END
*********DOUBLE PRECISION INNER PRODUCT, DSDOT, IBM/360 ASM.***********
*        USAGE STATEMENT                                   19 MAY 1974*
*             DW = DSDOT(N,SX,INCX,SY,INCY)                WASH. ST. U*
*        DW,DSDOT,REAL*8 SX( ),SY( ) REAL *4, N,INCX,INCY INTEGER * 4 *
***********************************************************************
DSDOT    PROLOG R9
         LM    R2,R6,0(R1)             GET POINTERS TO ARGUMENTS
         SDR   F0,F0                   SET DSDOT = 0
         NCHK  R7,R2,DONE              GET N AND QUIT IF N .LE. 0
         INCFX R3,R4,R7,R9,RSTAR4,ICY  FIX SX( ) INCREMENT
ICY      INCFX R5,R6,R7,R9,RSTAR4,LOOP FIX SY( ) INCREMENT
         CNOP  0,8                     ALIGN ON DOUBLE WORD.
LOOP     LE    F2,0(R3)                GET SX( ) AND
         ME    F2,0(R5)                MULTIPLY BY SY( ) AND
         ADR   F0,F2                   ACCUMULATE INNER PRODUCT
         INCBR R3,R4,R5,R6,R2,LOOP     ADD INCREMENTS AND CONTINUE LOOP
DONE     EPILOG
         END
*********ACCUM. INNER. PROD. AND ADD SCALAR, SDSDOT, IBM/360 ASM.******
*        USAGE STATEMENT                                   19 MAY 1974*
*             SW = SDSDOT(N,SB,SX,INCX,SY,INCY)            WASH. ST. U*
*        SW,SDSDOT,SB,SX( ),SY( ), REAL * 4, N,INCX,INCY INTEGER * 4  *
***********************************************************************
SDSDOT   PROLOG R11
         LM    R2,R7,0(R1)             GET POINTERS TO ARGUMENTS
         SDR   F0,F0                   SET SDSDOT =0.D0
         LE    F0,0(R3)                LOAD DBLE(SB)
         NCHK  R9,R2,DONE              GET N AND QUIT IF N .LE. 0
         L     R11,0(R5)               LOAD R11 WITH INCX
         C     R11,0(R7)               COMPARE INCX WITH INCY
         BNE   INCNEN                  IF INCX .NE. INCY, GEN. LOOP.
         SLA   R11,RSTAR4              MULT. INCX*4
         BM    INCNEN                  IF BOTH INCX AND INCY NEG.,
*                                      USE GEN. LOOP.
         LR    R8,R11                  SAVE INCX*4 AS INCREMENT.
*        THE CONTENTS OF REG R11 (CONTAINING INCX*4) ARE MOVED TO
*        R8 (UNOCCUPIED) BECAUSE THE 'MR' INSTRUCTION WHICH FOLLOWS
*        PLACES THE RESULT IN R11 AND ZEROES R10.
         MR    R10,R9                  COMPUTE INCX*4*(N-1)
         SR    R7,R7                   SET R7=0
         LR    R10,R8                  LOAD R10 WITH INCREMENT USED IN
*        LOOP.  THE 'BXLE' INSTRUCTION (BELOW) ADDS THE CONTENTS OF REG
*        R10 TO REG. R7 AND COMPARES WITH THE CONTENTS OF REG R11.
*        THE BRANCH (TO LOOPE) IS TAKEN WHEN THE CONTENTS OF R7
*        DO NOT EXCEED THE CONTENTS OF REG R11.
         CNOP  0,8                     ALIGN ON DOUBLE WORD.
LOOPE    LE    F2,0(R7,R4)             SET SX( )
         ME    F2,0(R7,R6)             COMPUTE SX( )*SY( )
         ADR   F0,F2                   ACCUMULATE INNER PRODUCT
         BXLE  R7,R10,LOOPE
         B     DONE
INCNEN   INCFX R4,R5,R9,R11,RSTAR4,ICY  FIX SX( ) INCREMENT
ICY      INCFX R6,R7,R9,R11,RSTAR4,LOOP FIX SY( ) INCREMENT
         CNOP  0,8                     ALIGN ON DOUBLE WORD.
LOOP     LE    F2,0(R4)                GET SX( ) AND
         ME    F2,0(R6)                MULTIPLY BY SY( ) AND
         ADR   F0,F2                   ACCUMULATE INNER PRODUCT
         INCBR R4,R5,R6,R7,R2,LOOP     ADD INCREMENTS AND CONTINUE LOOP
DONE     EPILOG                        EXIT WITH SNGL(DBLE(SB)+DOT
*                                      PRODUCT) IN F0 NOW.
         END
*********DOUBLE PRECISION INNER PRODUCT, DDOT, IBM/360 ASM.************
*        USAGE STATEMENT                                  21 JULY 1975*
*             DW = DDOT (N,DX,INCX,DY,INCY)            WASH. ST. U/ANL*
*        DW,DDOT,DX( ),DY( ),REAL*8 N,INCX,INCY,INTEGER*4             *
***********************************************************************
DDOT     PROLOG R11
         LM    R2,R6,0(R1)             GET POINTERS TO ARGUMENTS
         SDR   F0,F0                   SET DDOT = 0.0D0
         NCHK  R7,R2,DONE              GET N AND EXIT IF N .LE. 0
         L     R11,0(R4)               GET INCX
         C     R11,0(R6)               COMPARE INCY WITH INCX
         BNE   INCNE                   BRANCH TO GEN. LOOP IF NOT EQUAL
         SLA   R11,RSTAR8              MULTIPLY INCX * 8
         BM    INCNE                   BRANCH TO GEN. LOOP IF NEG.
         LR    R8,R11                  STORE INCX*8 IN UNOCCUPIED R8
         MR    R10,R7                  COMPUTE INCX * 8 * (N-1)
         SR    R6,R6                   SET R6 = 0
         LR    R10,R8                  LOAD R10 WITH LOOPEQ INCREMENT
         CNOP  0,8                     ALIGN ON DOUBLE WORD.
LOOPEQ   LD    F2,0(R6,R3)             GET DX( ) AND MULTIPLY
         MD    F2,0(R6,R5)             BY DY( ) AND ACCUMULATE
         ADR   F0,F2                   INNER PRODUCTS IN F0
         BXLE  R6,R10,LOOPEQ
         B     DONE
INCNE    INCFX R3,R4,R7,R9,RSTAR8,ICY    FIX DX( ) INCREMENT
ICY      INCFX R5,R6,R7,R9,RSTAR8,LOOPNE FIX DY( ) INCREMENT
         CNOP  0,8                     ALIGN ON DOUBLE WORD.
LOOPNE   LD    F2,0(R3)                GET DX( ) AND MULTIPLY
         MD    F2,0(R5)                BY DY( ) AND ACCUMULATE
         ADR   F0,F2                   INNER PRODUCTS IN F0
         INCBR R3,R4,R5,R6,R2,LOOPNE   ADD INCREMENTS AND CONTINUE
DONE     EPILOG
         END
*********EXTENDED PREC. DOT PRODUCT, DQDOTA, IBM/360 ASM.**********
*        USAGE STATEMENT                                          *
*             DW = DQDOTA (N,DB,QC,DX,INCX,DY,INCY)               *
*        QC(5) REAL*4,DW,DQDOTA,DB,DX(),DY() REAL*8,              *
*        N,INCX,INCY INTEGER*4                                    *
*******************************************************************
DQDOTA   PROLOG R11
         LM    R2,R8,0(R1)
         SDR   F2,F2                   CLEAR REG. F2
         LD    F0,0(R3)                LOAD EXTENDED (DB)
         LE    F4,0(R4)                GET QC( )
         STE   F4,TEMP
         LE    F4,4(R4)
         STE   F4,TEMP+4
         LD    F4,TEMP
         LE    F6,8(R4)
         STE   F6,TEMP
         LE    F6,12(R4)
         STE   F6,TEMP+4
         LD    F6,TEMP                 END GET QC( )
*        AXR   F0,F4                   COMPUTE DB + QC( )
*        WARNING: THE ABOVE INSTRUCTION MAY NOT BE PRESENT ON YOUR
*        MACHINE. OPTIONS: REPLACE IT BY ADR  F0,F4 OR USE A SOFTWARE
*        REPLACEMENT FOR THE OPERATION.
         ADR   F0,F4                   COMPUTE DB + QC( )
         NCHK  R9,R2,FIXQC
         INCFX R5,R6,R9,R11,RSTAR8,INCY
INCY     INCFX R7,R8,R9,R11,RSTAR8,LOOP
         CNOP  0,8                     ALIGN ON DOUBLE WORD.
LOOP     LD    F4,0(R5)                GET DX( )
*        MXD   F4,0(R7)                COMPUTE EXTEND. (DX()) * DY()
*        WARNING: THE ABOVE INSTRUCTION MAY NOT BE PRESENT ON YOUR
*        MACHINE. OPTIONS: REPLACE IT BY MD  F4,0(R7) OR USE A SOFTWARE
*        REPLACEMENT FOR THE OPERATION.
         MD    F4,0(R7)                COMPUTE EXTEND. (DX()) * DY()
*
*        AXR   F0,F4                   ACCUM. EXTEND. SUM
*        WARNING: THE ABOVE INSTRUCTION MAY NOT BE PRESENT ON YOUR
*        MACHINE. OPTIONS: REPLACE IT BY ADR  F0,F4 OR USE A SOFTWARE
*        REPLACEMENT FOR THE OPERATION.
         ADR   F0,F4                   ACCUM. EXTEND. SUM
         INCBR R5,R6,R7,R8,R2,LOOP
FIXQC    STD   F0,TEMP                 STORE RESULT IN
         LE    F4,TEMP                 EXTEND. QC( )
         STE   F4,0(R4)                THE REAL*4 OPS. ARE
         LE    F4,TEMP+4               NEEDED BECAUSE
         STE   F4,4(R4)                QC( ) MAY NOT HAVE
         STD   F2,TEMP                 REAL*8 ALIGNMENT.
         LE    F4,TEMP                 NOTE THAT ONLY
         STE   F4,8(R4)                QC(I),I=1,4 ARE USED.
         LE    F4,TEMP+4
         STE   F4,12(R4)
         EPILOG
         DS    0D
TEMP     DS    D
         END
*********EXTENDED PREC. DOT PRODUCT, DQDOTI, IBM/360 ASM.**********
*        USAGE STATEMENT                                          *
*             DW = DQDOTI (N,DB,QC,DX,INCX,DY,INCY)               *
*        QC(5) REAL*4,DW,DQDOTI,DB,DX(),DY() REAL*8,              *
*        N,INCX,INCY INTEGER*4                                    *
*******************************************************************
DQDOTI   PROLOG R11
         LM    R2,R8,0(R1)
         SDR   F2,F2                   CLEAR REG. F2
         LD    F0,0(R3)                LOAD EXTENDED (DB)
         NCHK  R9,R2,FIXQC
         INCFX R5,R6,R9,R11,RSTAR8,INCY
INCY     INCFX R7,R8,R9,R11,RSTAR8,LOOP
         CNOP  0,8                     ALIGN ON DOUBLE WORD.
LOOP     LD    F4,0(R5)                GET DX( )
*        MXD   F4,0(R7)                COMPUTE EXTEND. (DX()) * DY()
*        WARNING: THE ABOVE INSTRUCTION MAY NOT BE PRESENT ON YOUR
*        MACHINE. OPTIONS: REPLACE IT BY MD  F4,0(R7) OR USE A SOFTWARE
*        REPLACEMENT FOR THE OPERATION.
         MD    F4,0(R7)                COMPUTE EXTEND. (DX()) * DY()
*
*        AXR   F0,F4                   ACCUM. EXTEND. SUM
*        WARNING: THE ABOVE INSTRUCTION MAY NOT BE PRESENT ON YOUR
*        MACHINE. OPTIONS: REPLACE IT BY ADR  F0,F4 OR USE A SOFTWARE
*        REPLACEMENT FOR THE OPERATION.
         ADR   F0,F4                   ACCUM. EXTEND. SUM
         INCBR R5,R6,R7,R8,R2,LOOP
FIXQC    STD   F0,TEMP                 STORE RESULT IN
         LE    F4,TEMP                 EXTEND. QC( )
         STE   F4,0(R4)                THE REAL*4 OPS. ARE
         LE    F4,TEMP+4               NEEDED BECAUSE
         STE   F4,4(R4)                QC( ) MAY NOT HAVE
         STD   F2,TEMP                 REAL*8 ALIGNMENT.
         LE    F4,TEMP                 NOTE THAT ONLY
         STE   F4,8(R4)                QC(I),I=1,4 ARE USED.
         LE    F4,TEMP+4
         STE   F4,12(R4)
         EPILOG
         DS    0D
TEMP     DS    D
         END
*********COMPLEX (CONJUGATED) INNER PRODUCT, CDOTC,IBM/360 ASM.********
*        USAGE STATEMENT                              3 SEPTEMBER 1975*
*              CW = CDOTC(N,CX,INCX,CY,INCY)          WASH. ST. U./ANL*
*        CW,CDOTC,CX( ), CY( ) COMPLEX*8, N,INCX,INCY INTEGER*4       *
*        (THE ARRAY CX( ) HAS ITS ELEMENTS CONJUGATED).               *
***********************************************************************
CDOTC    PROLOG R11
         LM    R2,R6,0(R1)         GET POINTERS TO ARGUMENTS
         SER   F0,F0               SET CDOT=(0.,0.).
         SER   F2,F2
         NCHK  R7,R2,DONE          GET N AND QUIT IF N .LE. 0.
         L     R11,0(R4)           GET INCX
         C     R11,0(R6)           COMPARE INCY WITH INCX
         BNE   INCNE               BRANCH TO GEN. LOOP IF NOT EQUAL
         SLA   R11,CSTAR8          MULTIPLY INCX * 8
         BM    INCNE               GEN. LOOP IF INCX,INCY NEG.
         LR    R8,R11              SAVE INCX*8 IN UNOCCUPIED R8
         MR    R10,R7              MULTIPLY INCX * 8 * (N-1)
         SR    R6,R6               SET R6 = 0
         LR    R10,R8              LOAD LOOPEQ INCREMENT INTO R10
         CNOP  0,8                     ALIGN ON DOUBLE WORD.
LOOPEQ   LE    F4,0(R6,R3)         GET CX( ) = (S,T)
         LE    F6,4(R6,R3)
         ME    F4,0(R6,R5)         USE CY( ) = (U,V) TO FORM
         ME    F6,4(R6,R5)         S*U AND T*V
         AER   F0,F4               ACCUMULATE REAL PART OF
         AER   F0,F6               PRODUCT CONJG(CX( ))*CY( )=S*U+T*V
         LE    F4,0(R6,R3)         GET CX( ) = (S,T)
         LE    F6,4(R6,R3)
         ME    F4,4(R6,R5)         USE CY( ) = (U,V) TO FORM
         ME    F6,0(R6,R5)         S*V AND T*U
         AER   F2,F4               ACCUMULATE IMAG. PART OF
         SER   F2,F6               PRODUCT CONJG(CX( ))*CY( )=S*V-T*U
         BXLE  R6,R10,LOOPEQ
         B     DONE
INCNE    INCFX R3,R4,R7,R9,CSTAR8,ICY    FIX CX( ) INCREMENT
ICY      INCFX R5,R6,R7,R9,CSTAR8,LOOPNE FIX CY( ) INCREMENT
         CNOP  0,8                     ALIGN ON DOUBLE WORD.
LOOPNE   LE    F4,0(R3)            GET CX( ) =(S,T)
         LE    F6,4(R3)
         ME    F4,0(R5)            USE CY( ) = (U,V) TO FORM
         ME    F6,4(R5)            S*U AND T*V.
         AER   F0,F4               ACCUMULATE REAL PART OF
         AER   F0,F6               PRODUCT CONJG(CX( ))*CY( ) =S*U+T*V
         LE    F4,0(R3)            GET CX( ) = (S,T).
         LE    F6,4(R3)
         ME    F4,4(R5)            USE CY( ) = (U,V) TO FORM
         ME    F6,0(R5)            S*V AND T*U
         AER   F2,F4               ACCUMULATE IMAG. PART OF
         SER   F2,F6               PRODUCT CONJG(CX( ))*CY( )=S*V-T*U
         INCBR R3,R4,R5,R6,R2,LOOPNE ADD INCREMENTS AND CONTINUE LOOP
DONE     EPILOG
         END
*********COMPLEX INNER PRODUCT, CDOTU, IBM/360 ASM.********************
*        USAGE STATEMENT                              3 SEPTEMBER 1975*
*              CW = CDOTU (N,CX,INCX,CY,INCY)         WASH. ST. U./ANL*
*        CW,CDOTU,CX( ), CY( ) COMPLEX*8, N,INCX,INCY INTEGER*4       *
***********************************************************************
CDOTU    PROLOG R11
         LM    R2,R6,0(R1)             GET POINTERS TO ARGUMENTS.
         SER   F0,F0                   SET CDOTU = (0.,0.).
         SER   F2,F2
         NCHK  R7,R2,DONE              GET N AND QUIT IF N .LE. 0
         L     R11,0(R4)               GET INCX
         C     R11,0(R6)               COMPARE INCY WITH INCX
         BNE   INCNE                   BRANCH TO GEN. LOOP IF NOT EQUAL
         SLA   R11,CSTAR8              MULTIPLY INCX*8
         BM    INCNE                   INCX,INCY NEG., GEN. LOOP
         LR    R8,R11                  SAVE INCX*8 IN UNOCCUPIED R8
         MR    R10,R7                  COMPUTE INCX * 8 * (N-1)
         SR    R6,R6                   SET R6 = 0
         LR    R10,R8                  LOAD LOOPEQ INCREMENT INTO R10
         CNOP  0,8                     ALIGN ON DOUBLE WORD.
LOOPEQ   LE    F4,0(R6,R3)             GET CX( ) = (S,T)
         LE    F6,4(R6,R3)
         ME    F4,0(R6,R5)             USE CY( ) = (U,V) TO FORM
         ME    F6,4(R6,R5)             S*U AND T*V
         AER   F0,F4                   ACCUMULATE REAL PART OF
         SER   F0,F6                   PRODUCT CX( )*CY( ) = S*U-T*V
         LE    F4,0(R6,R3)             GET CX( ) = (S,T)
         LE    F6,4(R6,R3)
         ME    F4,4(R6,R5)             USE CY( ) = (U,V) TO FORM
         ME    F6,0(R6,R5)             S*V AND T*U
         AER   F2,F4                   ACCUMULATE IMAG. PART OF
         AER   F2,F6                   PRODUCT CX( )*CY( ) = S*V+T*U
         BXLE  R6,R10,LOOPEQ
         B     DONE
INCNE    INCFX R3,R4,R7,R9,CSTAR8,ICY    FIX CX( ) INCREMENT
ICY      INCFX R5,R6,R7,R9,CSTAR8,LOOPNE FIX CY( ) INCREMENT
         CNOP  0,8                     ALIGN ON DOUBLE WORD.
LOOPNE   LE    F4,0(R3)                GET CX( ) = (S,T)
         LE    F6,4(R3)
         ME    F4,0(R5)                USE CY( ) = (U,V) TO FORM
         ME    F6,4(R5)                S*U AND T*V
         AER   F0,F4                   ACCUMULATE REAL PART OF
         SER   F0,F6                   PRODUCT CX( )*CY( ) = S*U-T*V
         LE    F4,0(R3)                GET CX( ) = (S,T)
         LE    F6,4(R3)
         ME    F4,4(R5)                USE CY( ) = (U,V) TO FORM
         ME    F6,0(R5)                S*V AND T*U
         AER   F2,F4                   ACCUMULATE IMAG. PART OF
         AER   F2,F6                   PRODUCT CX( )*CY( ) = S*V+T*U
         INCBR R3,R4,R5,R6,R2,LOOPNE   ADD INCREMENTS AND CONTINUE LOOP
DONE     EPILOG
         END
********SINGLE PREC. AFFINE TRANSFORMATION, SAXPY, IBM/360 ASM.********
*       USAGE STATEMENT                                 14 AUGUST 1975*
*            CALL SAXPY (N,SA,SX,INCX,SY,INCY)         WASH. ST. U/ANL*
*       SA,SX( ),SY( ),REAL*4  N,INCX,INCY,INTEGER*4                  *
***********************************************************************
SAXPY    PROLOG R11
         LM    R2,R7,0(R1)             GET POINTERS TO ARGUMENTS
         NCHK  R9,R2,DONE              GET N AND EXIT IF N .LE. 0
         LE    F2,0(R3)                GET SCALAR SA FOR MULTIPLYING
         L     R11,0(R5)               GET INCX
         C     R11,0(R7)               COMPARE INCY WITH INCX
         BNE   INCNE                   BRANCH TO GEN. LOOP IF NOT EQUAL
         SLA   R11,RSTAR4              MULTIPLY INCX * 4
         BM    INCNE                   IF INCX, INCY NEG., GEN. LOOP
         LR    R8,R11                  SAVE INCX * 4 IN UNOCCUPIED R8
         MR    R10,R9                  COMPUTE INCX * 4 * (N-1)
         SR    R7,R7                   SET R7 = 0
         LR    R10,R8                  LOAD R10 WITH LOOPEQ INCREMENT
         CNOP  0,8                     ALIGN ON DOUBLE WORD.
LOOPEQ   LE    F0,0(R7,R4)             GET SX( )
         MER   F0,F2                   COMPUTE SA * SX( )
         AE    F0,0(R7,R6)             COMPUTE SA * SX( ) + SY( )
         STE   F0,0(R7,R6)             AND STORE AT SY( )
         BXLE  R7,R10,LOOPEQ
         B     DONE
INCNE    INCFX R4,R5,R9,R11,RSTAR4,ICY    FIX SX( ) INCREMENT
ICY      INCFX R6,R7,R9,R11,RSTAR4,LOOPNE FIX SY( ) INCREMENT
         CNOP  0,8                     ALIGN ON DOUBLE WORD.
LOOPNE   LE    F0,0(R4)                GET SX(  )
         MER   F0,F2                   COMPUTE SA * SX( )
         AE    F0,0(R6)                COMPUTE SA * SX( ) + SY( )
         STE   F0,0(R6)                AND STORE AT SY( )
         INCBR R4,R5,R6,R7,R2,LOOPNE   ADD INCREMENTS AND CONTINUE
DONE     EPILOG
         END
*********DBL. PREC. AFFINE TRANSFORMATION, DAXPY, IBM/360 ASM.*********
*        USAGE STATEMENT                                14 AUGUST 1975*
*             CALL DAXPY (N,DA,DX,INCX,DY,INCY)        WASH. ST. U/ANL*
*        DA,DX( ),DY( ) REAL*8, N,INCX,INCY INTEGER*4                 *
***********************************************************************
DAXPY    PROLOG R11
         LM    R2,R7,0(R1)             GET POINTERS TO ARGUMENTS
         NCHK  R9,R2,DONE              GET N AND QUIT IF N .LE. 0
         LD    F2,0(R3)                GET SCALAR DA FOR MULTIPLYING
         L     R11,0(R5)               GET INCX
         C     R11,0(R7)               COMPARE INCY WITH INCX
         BNE   INCNE                   BRANCH TO GEN. LOOP IF NOT EQUAL
         SLA   R11,RSTAR8              MULTIPLY INCX * 8
         BM    INCNE                   IF INCX,INCY NEG., GEN. LOOP
         LR    R8,R11                  SAVE INCX*8 IN UNOCCUPIED R8
         MR    R10,R9                  COMPUTE INCX * 8 * (N-1)
         SR    R7,R7                   SET R7 = 0
         LR    R10,R8                  LOAD R10 WITH LOOPEQ INCREMENT
         CNOP  0,8                     ALIGN ON DOUBLE WORD.
LOOPEQ   LD    F0,0(R7,R4)             GET DX( )
         MDR   F0,F2                   COMPUTE DA * DX( )
         AD    F0,0(R7,R6)             COMPUTE DA * DX( ) + DY( )
         STD   F0,0(R7,R6)             AND STORE AT DY( )
         BXLE  R7,R10,LOOPEQ
         B     DONE
INCNE    INCFX R4,R5,R9,R11,RSTAR8,ICY    FIX DX( ) INCREMENT
ICY      INCFX R6,R7,R9,R11,RSTAR8,LOOPNE FIX DY( ) INCREMENT
         CNOP  0,8                     ALIGN ON DOUBLE WORD.
LOOPNE   LD    F0,0(R4)                GET DX( )
         MDR   F0,F2                   COMPUTE DA * DX( )
         AD    F0,0(R6)                COMPUTE DA * DX( ) + DY( )
         STD   F0,0(R6)                AND STORE AT DY( )
         INCBR R4,R5,R6,R7,R2,LOOPNE   ADD INCREMENTS AND CONTINUE
DONE     EPILOG
         END
*********COMPLEX AFFINE TRANSFORMATION, CAXPY, IBM/360 ASM.************
*        USAGE STATEMENT                              3 SEPTEMBER 1975*
*             CALL CAXPY (N,CA,CX,INCX,CY,INCY)        WASH. ST. U/ANL*
*        CA,CX( ),CY( ) COMPLEX*8, N,INCX,INCY INTEGER*4              *
***********************************************************************
CAXPY    PROLOG R11
         LM    R2,R7,0(R1)             GET POINTERS TO ARGUMENTS
         NCHK  R9,R2,DONE              GET N AND QUIT IF N .LE. 0
         LE    F4,0(R3)                GET REAL PART OF CA
         STE   F4,AR                   STORE IT LOCALLY
         LE    F6,4(R3)                GET IMAG. PART OF CA
         L     R11,0(R5)               GET INCX
         C     R11,0(R7)               COMPARE INCY WITH INCX
         BNE   INCNE                   BRANCH TO GEN. LOOP IF NOT EQUAL
         SLA   R11,CSTAR8              MULTIPLY INCX * 8
         BM    INCNE                   GEN. LOOP IF INCX,INCY NEG.
         LR    R8,R11                  SAVE INCX*8 IN UNOCCUPIED R8
         MR    R10,R9                  MULTIPLY INCX * 8 * (N-1)
         SR    R7,R7                   SET R7 = 0
         LR    R10,R8                  LOAD LOOPEQ INCREMENT INTO R10
         CNOP  0,8                     ALIGN ON DOUBLE WORD.
LOOPEQ   LE    F0,AR                   GET REAL PART OF CA
         LER   F2,F6                   TRANSFER IMAG. PART OF CA TO F2
         ME    F0,0(R7,R4)
         ME    F2,4(R7,R4)
         SER   F0,F2                   REAL PART OF CA * CX( )
         AE    F0,0(R7,R6)             PLUS REAL PART OF CY( )
         LE    F2,AR
         ME    F2,4(R7,R4)
         LER   F4,F6
         ME    F4,0(R7,R4)
         AER   F2,F4                   IMAG. PART OF CA * CX( )
         AE    F2,4(R7,R6)             PLUS IMAG. PART OF CY( )
         STE   F0,0(R7,R6)             STORE CY( ) + CA * CX( )
         STE   F2,4(R7,R6)             AT CY( )
         BXLE  R7,R10,LOOPEQ
         B     DONE
INCNE    INCFX R4,R5,R9,R11,CSTAR8,ICY    FIX CX( ) INCREMENT
ICY      INCFX R6,R7,R9,R11,CSTAR8,LOOPNE FIX CY( ) INCREMENT
         CNOP  0,8                     ALIGN ON DOUBLE WORD.
LOOPNE   LE    F0,AR                   GET REAL PART OF CA
         LER   F2,F6                   TRANSFER IMAG. PART OF CA TO F2
         ME    F0,0(R4)
         ME    F2,4(R4)
         SER   F0,F2                   REAL PART OF CA*CX( )
         AE    F0,0(R6)                PLUS REAL PART OF CY( )
         LE    F2,AR
         ME    F2,4(R4)
         LER   F4,F6
         ME    F4,0(R4)
         AER   F2,F4                   IMAG. PART OF CA*CX( )
         AE    F2,4(R6)                PLUS IMAG. PART OF CY( )
         STE   F0,0(R6)
         STE   F2,4(R6)                STORE CY( )+CA*CX( ) AT CY( )
         INCBR R4,R5,R6,R7,R2,LOOPNE
DONE     EPILOG
AR       DS    F
         END
*********CONSTRUCT GIVENS TRANS., SNGL PREC., SROTG, IBM/360 ASM.******
*        USAGE STATEMENT                                  10 JUNE 1977*
*             CALL SROTG (SA,SB,SC,SS)                     WASH. ST. U*
*        SA,SB,SC,SS REAL*4                                           *